Version 4
SHEET 1 912 680
WIRE 64 48 -48 48
WIRE 64 128 48 128
WIRE 128 128 128 48
WIRE 144 128 128 128
WIRE 240 128 224 128
WIRE 416 128 320 128
WIRE 240 144 240 128
FLAG 48 208 0
FLAG -48 128 0
FLAG 240 208 0
FLAG 320 208 0
FLAG 416 192 0
SYMBOL voltage 48 112 R0
WINDOW 0 -16 56 Left 2
WINDOW 3 -108 163 Left 2
WINDOW 123 0 0 Left 2
WINDOW 39 0 0 Left 2
SYMATTR InstName V1
SYMATTR Value PULSE(0 400 0 +.00000001 +.00000001 .0000025 .00005 400)
SYMBOL schottky 64 144 R270
WINDOW 0 32 32 VTop 2
WINDOW 3 0 32 VBottom 2
SYMATTR InstName D1
SYMATTR Value MBR20100CT
SYMATTR Description Diode
SYMATTR Type diode
SYMBOL ind 224 144 R270
WINDOW 0 2 56 VTop 2
WINDOW 3 62 59 VBottom 2
SYMATTR InstName L1
SYMATTR Value 100µH
SYMBOL ind 128 144 R270
WINDOW 0 32 56 VTop 2
WINDOW 3 5 56 VBottom 2
SYMATTR InstName L2
SYMATTR Value 18µH
SYMBOL voltage -48 32 R0
WINDOW 0 -15 56 Left 2
WINDOW 3 -72 92 Left 2
SYMATTR InstName V3
SYMATTR Value 400
SYMBOL schottky 256 208 R180
WINDOW 0 41 -11 Left 2
WINDOW 3 24 0 Left 2
SYMATTR InstName D2
SYMATTR Value MBR20100CT
SYMATTR Description Diode
SYMATTR Type diode
SYMBOL cap 64 64 R270
WINDOW 0 32 32 VTop 2
WINDOW 3 41 80 VBottom 2
SYMATTR InstName C1
SYMATTR Value .1µF
SYMBOL res 304 112 R0
SYMATTR InstName R1
SYMATTR Value 16
SYMBOL cap 400 128 R0
SYMATTR InstName C2
SYMATTR Value 0.1µF
TEXT 248 240 Left 2 !.tran 0 .0005 0
